!- Darwin Line endings 

Version,
    8.9;                      !- Version Identifier

SimulationControl,
    No,                       !- Do Zone Sizing Calculation
    No,                       !- Do System Sizing Calculation
    No,                       !- Do Plant Sizing Calculation
    Yes,                      !- Run Simulation for Sizing Periods
    No;                       !- Run Simulation for Weather File Run Periods

Building,
    None,                     !- Name
    0.0,                      !- North Axis
    Suburbs,                  !- Terrain
    0.04,                     !- Loads Convergence Tolerance Value
    0.4,                      !- Temperature Convergence Tolerance Value
    FullInteriorAndExterior,    !- Solar Distribution
    25,                       !- Maximum Number of Warmup Days
    6;                        !- Minimum Number of Warmup Days

Timestep,
    4;                        !- Number of Timesteps per Hour

Site:Location,
    DENVER_STAPLETON_CO_USA_WMO_724690,    !- Name
    39.77,                    !- Latitude
    -104.87,                  !- Longitude
    -7.0,                     !- Time Zone
    1611.0;                   !- Elevation

SizingPeriod:DesignDay,
    DENVER_STAPLETON Ann Htg 99.6% Condns DB,    !- Name
    12,                       !- Month
    21,                       !- Day of Month
    WinterDesignDay,          !- Day Type
    -20.0,                    !- Maximum DryBulb Temperature
    0.0,                      !- Daily DryBulb Temperature Range
    ,                         !- DryBulb Temperature Range Modifier Type
    ,                         !- DryBulb Temperature Range Modifier Day Schedule Name
    Wetbulb,                  !- Humidity Condition Type
    -20.0,                    !- Wetbulb or DewPoint at Maximum DryBulb
    ,                         !- Humidity Condition Day Schedule Name
    ,                         !- Humidity Ratio at Maximum DryBulb
    ,                         !- Enthalpy at Maximum DryBulb
    ,                         !- Daily WetBulb Temperature Range
    83411.0,                  !- Barometric Pressure
    2.3,                      !- Wind Speed
    180.0,                    !- Wind Direction
    No,                       !- Rain Indicator
    No,                       !- Snow Indicator
    No,                       !- Daylight Saving Time Indicator
    ASHRAEClearSky,           !- Solar Model Indicator
    ,                         !- Beam Solar Day Schedule Name
    ,                         !- Diffuse Solar Day Schedule Name
    ,                         !- ASHRAE Clear Sky Optical Depth for Beam Irradiance taub
    ,                         !- ASHRAE Clear Sky Optical Depth for Diffuse Irradiance taud
    0.0;                      !- Sky Clearness

SizingPeriod:DesignDay,
    DENVER_STAPLETON Ann Clg .4% Condns DB=>MWB,    !- Name
    7,                        !- Month
    21,                       !- Day of Month
    SummerDesignDay,          !- Day Type
    34.1,                     !- Maximum DryBulb Temperature
    15.2,                     !- Daily DryBulb Temperature Range
    ,                         !- DryBulb Temperature Range Modifier Type
    ,                         !- DryBulb Temperature Range Modifier Day Schedule Name
    Wetbulb,                  !- Humidity Condition Type
    15.8,                     !- Wetbulb or DewPoint at Maximum DryBulb
    ,                         !- Humidity Condition Day Schedule Name
    ,                         !- Humidity Ratio at Maximum DryBulb
    ,                         !- Enthalpy at Maximum DryBulb
    ,                         !- Daily WetBulb Temperature Range
    83411.0,                  !- Barometric Pressure
    4.0,                      !- Wind Speed
    120.0,                    !- Wind Direction
    No,                       !- Rain Indicator
    No,                       !- Snow Indicator
    No,                       !- Daylight Saving Time Indicator
    ASHRAEClearSky,           !- Solar Model Indicator
    ,                         !- Beam Solar Day Schedule Name
    ,                         !- Diffuse Solar Day Schedule Name
    ,                         !- ASHRAE Clear Sky Optical Depth for Beam Irradiance taub
    ,                         !- ASHRAE Clear Sky Optical Depth for Diffuse Irradiance taud
    1.0;                      !- Sky Clearness

RunPeriod,
    ,                         !- Name
    Spamuary,                 !- Begin Month
    1,                        !- Begin Day of Month
    12,                       !- End Month
    31,                       !- End Day of Month
    Tuesday,                  !- Day of Week for Start Day
    Yes,                      !- Use Weather File Holidays and Special Days
    Yes,                      !- Use Weather File Daylight Saving Period
    No,                       !- Apply Weekend Holiday Rule
    Yes,                      !- Use Weather File Rain Indicators
    Yes;                      !- Use Weather File Snow Indicators

GlobalGeometryRules,
    UpperLeftCorner,          !- Starting Vertex Position
    CounterClockWise,         !- Vertex Entry Direction
    World;                    !- Coordinate System

Output:VariableDictionary,
    Regular;                  !- Key Field

Output:Table:SummaryReports,
    AllSummary;               !- Report 1 Name

OutputControl:Table:Style,
    HTML;                     !- Column Separator

Output:Variable,
    *,                        !- Key Value
    Site Outdoor Air Drybulb Temperature,    !- Variable Name
    Timestep;                 !- Reporting Frequency

Output:Variable,
    *,                        !- Key Value
    Site Outdoor Air Wetbulb Temperature,    !- Variable Name
    Timestep;                 !- Reporting Frequency

Output:Variable,
    *,                        !- Key Value
    Site Outdoor Air Dewpoint Temperature,    !- Variable Name
    Timestep;                 !- Reporting Frequency

Output:Variable,
    *,                        !- Key Value
    Site Solar Azimuth Angle,    !- Variable Name
    Timestep;                 !- Reporting Frequency

Output:Variable,
    *,                        !- Key Value
    Site Solar Altitude Angle,    !- Variable Name
    Timestep;                 !- Reporting Frequency

Output:Variable,
    *,                        !- Key Value
    Site Direct Solar Radiation Rate per Area,    !- Variable Name
    Timestep;                 !- Reporting Frequency

Output:Variable,
    *,                        !- Key Value
    Site Diffuse Solar Radiation Rate per Area,    !- Variable Name
    Timestep;                 !- Reporting Frequency